data/state_estimation/SE_PT2040_W/state_estimation_PT2040_W_t10.csv
bus,vm_pu,va_degree,p_mw,q_mvar
1,1.041837,0.025101,0.084274,-44.432670
2,1.042815,0.101986,-0.036214,-45.960859
3,1.041494,0.079014,-0.031945,-18.538048
4,1.037578,0.161732,0.132393,-51.862840
5,1.029716,0.333351,760.620470,-88.111379
6,1.029605,0.201249,0.035621,-2.054926
7,1.034678,0.102549,0.064145,26.546181
8,1.004500,-0.103369,0.060420,-0.026150
9,1.022413,0.037027,0.027670,-0.010438
10,1.044477,0.263292,915.405711,0.006391
11,1.016255,0.017709,-1.247861,0.041720
12,1.018566,0.072343,-0.023202,-0.020088
13,1.021691,0.041834,-4.882120,-1.441320
14,1.022762,0.038320,0.063374,0.071137
15,1.041004,0.192623,915.314595,0.052747
16,1.023382,-0.003000,0.026704,0.025976
17,1.026172,0.013711,0.158911,0.068656
18,1.025807,0.045966,0.099445,-0.044369
19,1.014764,0.097620,0.142884,0.040902
20,1.028692,0.085858,526.387562,0.022472
21,1.025163,0.010175,0.013251,0.009570
22,1.032520,0.149481,0.795174,32.690817
23,1.012400,0.061497,0.037434,-0.046551
24,1.022500,0.107686,0.081476,-0.011579
25,1.036930,0.077709,791.607272,-0.047042
26,1.042744,0.230894,-4.135532,-0.493358
27,1.030574,0.106791,0.043547,0.367817
28,1.029153,0.124025,-0.317504,0.209051
29,1.022524,0.084601,-0.009012,-0.089039
30,1.040175,0.049349,31.006860,17.115210
31,1.018581,0.124483,0.025384,0.025508
32,1.035610,0.052999,0.045523,-0.045011
33,1.042464,0.052083,0.066965,0.030779
34,1.023814,0.099231,0.004987,-0.124230
35,1.006597,0.020358,0.077750,-0.024731
36,1.012939,-0.102017,0.147898,0.030318
37,1.024063,-0.094119,0.082275,-0.007384
38,1.025443,-0.061123,0.033463,-0.008318
39,1.021256,-0.051118,0.024554,-0.003755
40,1.028692,0.200255,0.071908,0.002968
41,1.025849,-0.062588,0.009815,0.062332
42,1.018198,0.024163,0.071545,-0.005418
43,1.024796,-0.092467,0.046106,0.053857
44,1.024344,-0.054655,0.027237,-0.053740
45,1.024707,-0.061056,0.043065,0.033559
46,1.022665,-0.086527,0.053841,-0.071374
47,1.029439,-0.027760,0.054688,0.014774
48,1.019554,-0.062593,0.094823,0.007043
49,1.027433,-0.055837,0.149967,0.031052
50,1.024436,-0.084543,-31.929476,-0.014564
51,1.027283,0.047820,-0.041979,-0.010792
52,1.026081,-0.048756,-0.004986,-0.031578
53,1.024981,-0.067023,0.026164,-0.034143
54,1.034952,0.166115,0.087664,0.082240
55,1.022734,-0.096435,0.110241,-0.040493
56,1.023818,-0.103446,-0.004468,0.041506
57,1.028351,-0.046314,0.078810,0.014809
58,1.023582,-0.097983,0.046729,0.065592
59,1.024663,-0.095555,-0.003437,-0.053247
60,1.029549,-0.032335,-0.018953,0.022335
61,1.030572,-0.025227,90.091234,25.054852
62,1.020097,0.117371,0.062223,-0.003144
63,1.033498,0.141055,0.024552,0.024502
64,1.016988,-0.103230,0.123855,0.017295
65,1.020972,0.092113,-0.053578,-0.050459
66,1.030795,-0.019379,0.138237,-0.010934
67,1.028368,-0.041145,-1.503034,0.080449
68,1.024951,-0.066590,0.047579,0.082293
69,1.024342,-0.041369,0.047511,-0.017081
70,1.025430,0.001520,-0.037995,-0.014154
71,1.020270,-0.059441,0.063451,0.012544
72,1.016547,0.122294,0.046383,-0.039051
73,1.029223,0.101367,0.074029,-0.033377
74,1.021895,-0.072552,0.017309,0.033089
75,1.028167,0.043892,0.098273,0.057328
76,1.023650,-0.096420,0.022052,-0.100783
77,1.029355,0.134701,0.031888,0.041517
78,1.018139,-0.018032,0.033229,0.056406
79,1.028165,0.061694,0.065675,-0.031255
80,1.043913,0.165594,0.034447,0.003334
81,1.037121,-0.024028,0.073578,0.018807
82,1.039672,-0.025282,0.060459,-0.023754
83,1.044460,0.015606,-0.047779,-0.066126
84,1.040426,0.030759,-0.029596,-0.026903
85,1.036114,-0.006114,0.029349,0.006389
86,1.040054,0.039011,0.068073,-0.019779
87,1.044859,0.120577,-0.051148,-0.002754
88,1.038595,0.004267,0.011958,-0.003532
89,1.038843,-0.016132,0.085343,-0.039751
90,1.040131,0.040100,0.051356,-0.029043
91,1.041150,0.016783,0.062299,-0.016188
92,1.033424,-0.012286,0.084199,-0.030376
93,1.038393,-0.009653,0.091836,0.054093
94,1.038276,-0.017996,0.082460,0.049078
95,1.043479,0.009608,0.002235,0.005437
96,1.043842,0.025521,-0.012322,-0.098939
97,1.039537,0.023384,-0.039404,-0.025645
98,1.042167,0.078565,0.088624,-0.029722
99,1.044386,0.067396,0.066225,-0.000690
100,1.043268,-0.000639,-32.024103,0.028716
101,1.038410,0.003397,-0.012641,0.041095
102,1.026769,0.106932,0.071966,0.046108
103,1.040380,0.020453,0.019472,0.015544
104,1.039853,0.016812,0.107913,-0.022076
105,1.041258,0.161522,0.016719,-0.053273
106,1.042415,0.101784,0.065175,-0.031689
107,1.029726,0.103921,0.065394,-0.020048
108,1.016210,0.028771,-21.382550,-5.019905
109,1.022589,-0.207288,-350.953092,17.972088
110,1.021658,-0.163985,-234.254427,-11.149918
111,1.024111,-0.132350,-222.322219,-3.857902
112,1.020398,0.018598,-78.186767,-6.460413
113,1.027653,0.217936,-102.095503,-17.289555
114,1.024577,-0.110088,-191.990559,5.102293
115,1.007164,0.161196,-83.705769,8.684295
116,1.016763,-0.149130,-451.446293,-24.755690
117,1.015444,-0.010203,-60.346021,-1.256973
118,1.018891,-0.007911,-107.084146,10.493868
119,1.034402,-0.107536,-301.333008,-23.986091
120,1.022157,-0.098987,-195.476333,2.770615
121,1.020261,0.033072,-159.256407,1.244736
122,1.034566,-0.029365,-159.121568,-23.697410
123,1.024410,-0.019411,-270.167472,-3.205475
124,1.029013,-0.116700,-184.168105,24.210089
125,1.023170,-0.137794,-175.175874,-7.932168
126,1.030139,0.169063,-130.635422,-8.445268
127,1.022498,-0.060037,-112.511173,-3.529131
128,1.034935,-0.044478,-238.443477,-8.693088
129,1.030564,-0.170943,-358.416688,26.230989
130,1.019155,-0.155924,-477.882558,-17.761144
131,1.026140,-0.077913,-206.478584,-20.588593
132,1.014313,-0.020651,35.052657,-7.043228
133,1.008548,-0.010702,-182.911330,-1.025761
134,1.022530,-0.147608,-254.368917,10.733465
135,1.024326,-0.155272,-277.439910,-16.308717
136,1.025586,-0.190955,-314.742539,-20.526530
137,1.028301,-0.089610,-176.365813,7.384740
138,1.023213,-0.073820,-177.305926,-19.777290
139,1.023480,-0.159406,-219.647629,-5.840950
140,1.025141,0.032026,-121.099699,5.154532
141,1.017950,0.015929,-158.635663,-32.374693
142,1.026224,-0.080287,-191.956586,6.582230
143,1.016477,-0.128327,-62.934106,-5.135673
144,1.022336,-0.076770,-95.346676,-2.141018
145,1.020039,-0.026630,-277.298975,25.345283
146,1.016516,0.130185,-19.525621,-0.747087
147,1.023433,-0.064428,-96.340018,-5.675711
148,1.008829,0.046153,0.093031,-0.007158
149,1.016682,0.000215,-199.215288,-7.870560
150,1.022192,0.026730,-106.918340,11.964930
151,1.027763,-0.002383,-271.129612,-48.649340
152,1.019329,0.073289,-121.666188,10.636643
153,1.019397,0.133362,-9.520725,-0.481459
154,1.016407,-0.160720,-125.985881,-4.292235
155,1.016931,0.076461,-43.701523,12.002827
156,1.017494,-0.030894,-24.404648,-4.834334
157,1.020668,-0.128202,-119.415695,-0.036884
158,1.028574,-0.038570,-92.843032,0.973184
159,1.029977,0.032266,-116.704789,40.232543
160,1.024606,0.009899,-23.895157,-6.455136
161,1.019147,-0.068491,-19.336115,15.831841
162,1.019579,0.126233,3.054518,13.463886
163,1.028084,0.048564,-9.478556,-1.501230
164,1.026146,0.142757,-42.279506,5.236599
165,1.007713,0.117663,35.138588,-5.288606
166,1.015544,-0.050290,44.527369,-22.642035
167,1.010922,0.039333,-17.415331,8.693786
168,1.029177,-0.118856,-205.893124,2.700934
169,1.026032,0.150018,107.580067,29.142703
170,1.020140,-0.037868,-40.843812,22.785287
171,1.014323,-0.037185,-72.054287,-2.250674
172,1.008254,0.047727,-37.798037,-0.005651
173,1.043222,0.055968,72.023297,12.549435
174,1.041209,0.055011,21.000499,-4.470244
175,1.011099,-0.065699,54.069747,-15.298761
176,1.009294,-0.076901,21.993742,7.933820
177,1.042466,0.052791,0.040907,0.122217
178,1.025907,0.006845,28.978505,1.868635
179,1.044944,0.053731,31.245204,26.364864
180,1.021313,0.039777,-0.010170,-0.074815
181,1.028105,0.116169,66.051846,16.157974
182,1.042568,0.052998,0.066978,23.280456
183,1.043181,0.210924,118.089715,7.907732
184,1.036316,0.038143,0.027089,0.053063
185,1.024934,0.073322,-0.056288,-0.072490
186,1.019751,0.067379,0.114364,-0.048940
187,1.013390,-0.100800,26.543508,3.120615
188,1.013121,-0.100787,26.460040,-0.094774
189,1.014102,-0.101010,26.557607,-0.177316
190,1.025377,-0.058281,0.043152,-0.059010
191,1.035794,0.176742,184.547446,-8.805862
192,1.031314,0.155608,119.996591,-23.090923
193,1.028718,-0.047715,0.040365,-0.076102
194,1.031893,0.072785,120.042311,15.015041
195,1.024491,-0.046655,0.026793,24.537676
196,1.029881,0.201358,92.972752,84.099298
197,1.028117,0.044239,0.002435,-0.064116
198,1.032746,0.201420,0.035181,18.225936
199,1.026067,-0.049923,0.049972,-0.037426
200,1.035047,0.165385,0.441524,3.625816
201,1.035087,0.167143,32.516497,-1.954393
202,1.034721,0.165853,32.522431,-1.928254
203,1.034361,0.166667,122.650998,-14.298174
204,1.023833,-0.094389,0.076298,0.006907
205,1.024228,-0.096093,0.032978,0.023032
206,1.029827,-0.031534,35.036449,14.020479
207,1.029854,-0.032005,35.117614,11.659478
208,1.026183,-0.059788,-0.023604,-0.017528
209,1.026042,-0.059227,0.058801,0.033468
210,1.025755,-0.058324,-0.054761,0.002694
211,1.026068,-0.058463,0.139110,-0.001398
212,1.022265,0.139327,0.076553,-0.020663
213,1.023847,-0.093973,0.049153,-0.039093
214,1.023496,-0.095227,-0.023934,-0.065519
215,1.024503,-0.093402,0.040006,-0.011478
216,1.024127,-0.094281,0.093203,0.092356
217,1.026120,-0.091577,0.054409,-0.000137
218,1.029675,-0.020096,100.666899,48.737103
219,1.023594,-0.096426,0.062452,-0.019386
220,1.031478,-0.039109,594.021011,163.497309
221,1.030148,-0.041228,0.030260,0.024270
222,1.022226,-0.086888,235.238267,64.434223
223,1.022149,-0.009336,0.045053,0.025024
224,1.030260,-0.026575,0.062341,0.017520
225,1.043592,0.107247,95.524966,-2.462904
226,1.041795,0.058468,0.068270,0.008647
227,1.041514,0.159972,0.102967,-15.482552
228,1.041713,0.160215,0.039944,-23.793716
229,1.042971,0.016289,0.039789,13.591076
230,1.041515,0.016573,0.055010,32.329438
231,1.041095,0.038799,-0.061353,18.270914
232,1.043416,0.025050,157.573903,-1.290654
233,1.043160,0.026074,157.545373,-1.478638
234,1.043045,0.124417,118.060564,0.349141
235,1.043075,0.123426,117.969199,0.575609
236,1.045149,0.123732,118.085611,0.612700
237,1.045183,0.067833,115.254166,-1.991964
238,1.044852,0.067477,115.217562,-1.997247
239,1.043543,-0.000095,235.255224,-3.163763
240,1.043386,0.000009,235.214372,43.257459
241,1.044364,0.016292,247.742729,0.141932
242,1.043955,0.014133,247.848052,2.619315
243,1.045513,0.067021,251.108771,-2.659671
244,1.044812,0.066974,251.219428,-1.981764
245,1.021031,0.133150,-45.444727,-14.282767
246,1.020831,0.037954,-20.464470,-4.591724
247,1.020779,0.067184,-2.150810,0.126749
248,1.021597,0.116741,-0.865231,0.310558
249,1.021854,0.039358,-5.060389,1.081796
250,1.040068,0.191636,-43.824540,-19.033622
251,1.029326,0.051736,105.792069,-2.720072
252,1.027079,0.212838,166.474879,-17.236802
253,1.024320,0.187888,112.467695,-8.994447
254,1.038198,0.052495,0.105743,-0.923151
255,1.038789,0.176807,-156.937689,19.808802
256,1.025501,-0.057459,-9.489382,-0.488710
257,1.019055,0.058085,-1.011615,0.715079
258,1.022464,-0.042696,-1.433638,0.574036
259,1.021725,0.104712,-0.130533,0.613806
260,0.987862,-0.149742,-137.564838,-43.729338
261,1.019200,0.119342,-0.896871,0.486300
262,1.023292,-0.008189,23.446648,3.011421
263,1.022260,0.146396,80.150960,-13.584383
264,1.030201,-0.027281,2.620108,0.915219
265,1.023215,-0.010332,48.737516,12.764165
266,1.022019,0.138813,117.546585,-4.927662
267,1.028123,0.044774,112.530961,-35.447907
268,1.041374,0.043414,144.497081,21.679892
269,1.007328,0.149781,0.040606,0.011602
270,1.008177,0.150352,-0.000027,0.038553
271,1.008212,0.142955,0.171245,-0.074111
272,1.008070,0.126876,0.047675,0.083037
273,1.022156,-0.143163,30.016889,-0.122314
274,1.021940,-0.143224,0.052207,-0.016634
275,1.021540,-0.143404,0.087914,0.034160
276,1.019045,-0.147595,0.035031,-0.050921
277,1.019351,-0.147345,0.037276,0.005653
278,1.018396,-0.147291,0.001048,0.049196
279,1.017631,-0.149770,0.096374,0.001507
280,1.018965,-0.153760,-0.003994,-0.014593
281,1.021203,-0.149003,0.049909,0.019916
282,1.021762,-0.144952,0.065368,-0.037226
283,1.013917,-0.019962,0.031631,0.064645
284,1.018516,-0.024959,-0.032229,0.010042
285,1.019799,-0.025591,0.076679,-0.009867
286,1.020846,-0.026716,0.042040,-0.036828
287,1.008839,-0.011922,0.025599,-0.070661
288,1.009201,-0.011835,-0.069215,0.032569
289,1.009387,-0.011901,0.106432,0.034111
290,1.011723,-0.012189,0.026596,0.042201
291,1.012532,-0.012513,0.058624,-0.016075
292,1.011713,-0.011611,0.034585,0.043886
293,1.013668,-0.011879,0.119301,-0.197533
294,1.009986,0.043281,0.054393,0.016305
295,1.010195,0.041018,0.044982,0.007861
296,1.010285,0.039001,0.040690,0.004540
297,1.010898,0.039833,0.021573,-0.066791
298,1.007993,0.100976,0.064247,-0.060362
299,1.008908,0.101095,0.087834,0.012136
300,1.008741,0.101539,0.085748,-0.051404
301,1.008997,0.086012,0.074301,0.002875
302,1.009612,0.072781,0.143121,0.029990
303,1.008165,0.057499,0.062203,0.028971
304,1.008245,0.056550,0.005691,-0.072112
